VERS 201130 77 101234 L101234
MODE SEQ
NAME 
AUTH 
PFIL 0 0 0
LANG 0
UNIT MM X W X CM MR CPMM
ENPD 50
ENVD 20 1 0
GFAC 0 0
GCAT SCHOTT 
RAIM 0 0 1 1 0 0 0 0 0 1
PUSH 2.8590903796070108 0 0 0 0 0
SDMA 0 0 0
OMMA 1 1
FTYP 0 0 3 3 0 0 0 3
ROPD 2
HYPR 0
PICB 1
XFLN 0 0 0
YFLN 0 15.9 22.5
FWGN 1 1 1
VDXN 0 0 0
VDYN 0 0 0
VCXN 0 0 0
VCYN 0 0 0
VANN 0 0 0
WAVM 1 0.48613269999999997 1
WAVM 2 0.58756180000000002 1
WAVM 3 0.65627250000000004 1
WAVM 4 0.55000000000000004 1
WAVM 5 0.55000000000000004 1
WAVM 6 0.55000000000000004 1
WAVM 7 0.55000000000000004 1
WAVM 8 0.55000000000000004 1
WAVM 9 0.55000000000000004 1
WAVM 10 0.55000000000000004 1
WAVM 11 0.55000000000000004 1
WAVM 12 0.55000000000000004 1
WAVM 13 0.55000000000000004 1
WAVM 14 0.55000000000000004 1
WAVM 15 0.55000000000000004 1
WAVM 16 0.55000000000000004 1
WAVM 17 0.55000000000000004 1
WAVM 18 0.55000000000000004 1
WAVM 19 0.55000000000000004 1
WAVM 20 0.55000000000000004 1
WAVM 21 0.55000000000000004 1
WAVM 22 0.55000000000000004 1
WAVM 23 0.55000000000000004 1
WAVM 24 0.55000000000000004 1
PWAV 2
POLS 1 0 1 0 0 1 0
GLRS 1 0
GSTD 0 100.000 100.000 100.000 100.000 100.000 100.000 0 1 1 0 0 1 1 1 1 1 1
NSCD 100 500 0 0.001 10 9.9999999999999995e-07 0 0 0 0 0 0 1000000 0 2
COFN QF "COATING.DAT" "SCATTER_PROFILE.DAT" "ABG_DATA.DAT" "PROFILE.GRD"
COFN COATING.DAT SCATTER_PROFILE.DAT ABG_DATA.DAT PROFILE.GRD
SURF 0
  TYPE STANDARD
  FIMP 

  CURV 0.0 0 0 0 0 ""
  HIDE 0 0 0 0 0 0 0 0 0 0
  MIRR 2 0
  SLAB 1
  DISZ INFINITY
  DIAM 0 0 0 0 1 ""
  MEMA 0 0 0 0 1 ""
  POPS 0 0 0 0 0 0 0 0 1 1 1 1 0 0 0 0
SURF 1
  TYPE STANDARD
  FIMP 

  CURV 9.158263959483999017E-03 1 0 0 0 ""
  HIDE 0 0 0 0 0 0 0 0 0 0
  MIRR 2 0
  SLAB 1
  DISZ 12.321
  GLAS K5HT 0 0 1.5224902787722348 59.512324075372923 0.00089999999999999998 1 1 1 0 0 
  VDSZ 0 0
  DIAM 43.925145762544226 0 0 0 1 ""
  MEMA 43.925145762544226 0 0 0 1 ""
  POPS 0 0 0 0 0 0 0 0 1 1 1 1 0 0 0 0
SURF 2
  TYPE STANDARD
  FIMP 

  CURV -5.325454500913999597E-04 1 0 0 0 ""
  HIDE 0 0 0 0 0 0 0 0 0 0
  MIRR 2 0
  SLAB 1
  DISZ 9.6890000000000001
  VDSZ 0 0
  DIAM 42.822574440239279 0 0 0 1 ""
  MEMA 43.925145762544226 0 0 0 1 ""
  POPS 0 0 0 0 0 0 0 0 1 1 1 1 0 0 0 0
SURF 3
  TYPE STANDARD
  FIMP 

  CURV 2.306219875003000241E-02 1 0 0 0 ""
  HIDE 0 0 0 0 0 0 0 0 0 0
  MIRR 2 0
  SLAB 1
  DISZ 15.385999999999999
  GLAS N-BAK2 0 0 1.5399637387349312 59.730319367187022 0.00020000000000000001 1 1 1 0 0 
  VDSZ 0 0
  DIAM 27.55680790005961 0 0 0 1 ""
  MEMA 27.55680790005961 0 0 0 1 ""
  POPS 0 0 0 0 0 0 0 0 1 1 1 1 0 0 0 0
SURF 4
  TYPE STANDARD
  FIMP 

  CURV -8.403220113947999781E-03 1 0 0 0 ""
  HIDE 0 0 0 0 0 0 0 0 0 0
  MIRR 2 0
  SLAB 1
  DISZ 6.9240000000000004
  GLAS N-LAF35 0 0 1.7433059902440391 49.335808387251596 -0.01 1 1 1 0 0 
  VDSZ 0 0
  DIAM 25.396227996263978 0 0 0 1 ""
  MEMA 27.55680790005961 0 0 0 1 ""
  POPS 0 0 0 0 0 0 0 0 1 1 1 1 0 0 0 0
SURF 5
  TYPE STANDARD
  FIMP 

  CURV 2.611920806561000147E-02 1 0 0 0 ""
  HIDE 0 0 0 0 0 0 0 0 0 0
  MIRR 2 0
  SLAB 1
  DISZ 6.1079999999999997
  VDSZ 0 0
  DIAM 17.952245717085503 0 0 0 1 ""
  MEMA 27.55680790005961 0 0 0 1 ""
  POPS 0 0 0 0 0 0 0 0 1 1 1 1 0 0 0 0
SURF 6
  STOP
  TYPE STANDARD
  FIMP 

  CURV 0.0 0 0 0 0 ""
  HIDE 0 0 0 0 0 0 0 0 0 0
  MIRR 2 0
  SLAB 1
  DISZ 3.9950000000000001
  VDSZ 0 0
  DIAM 17.240788915537976 0 0 0 1 ""
  MEMA 17.240788915537976 0 0 0 1 ""
  POPS 0 0 0 0 0 0 0 0 1 1 1 1 0 0 0 0
SURF 7
  TYPE STANDARD
  FIMP 

  CURV -2.182453077259000063E-02 1 0 0 0 ""
  HIDE 0 0 0 0 0 0 0 0 0 0
  MIRR 2 0
  SLAB 1
  DISZ 4.3860000000000001
  GLAS LF7 0 0 1.5750260465115091 41.296920045472483 -0.001 1 1 1 0 0 
  VDSZ 0 0
  DIAM 17.121588413868274 0 0 0 1 ""
  MEMA 25.877513304202004 0 0 0 1 ""
  POPS 0 0 0 0 0 0 0 0 1 1 1 1 0 0 0 0
SURF 8
  TYPE STANDARD
  FIMP 

  CURV 1.684125433662000265E-02 1 0 0 0 ""
  HIDE 0 0 0 0 0 0 0 0 0 0
  MIRR 2 0
  SLAB 1
  DISZ 14.890000000000001
  GLAS N-PSK53A 0 0 1.6179984017376432 63.405766711830189 0.0019 1 1 1 0 0 
  VDSZ 0 0
  DIAM 24.149740534648426 0 0 0 1 ""
  MEMA 25.877513304202004 0 0 0 1 ""
  POPS 0 0 0 0 0 0 0 0 1 1 1 1 0 0 0 0
SURF 9
  TYPE STANDARD
  FIMP 

  CURV -1.847882326852999871E-02 1 0 0 0 ""
  HIDE 0 0 0 0 0 0 0 0 0 0
  MIRR 2 0
  SLAB 1
  DISZ 0.57699999999999996
  VDSZ 0 0
  DIAM 25.877513304202004 0 0 0 1 ""
  MEMA 25.877513304202004 0 0 0 1 ""
  POPS 0 0 0 0 0 0 0 0 1 1 1 1 0 0 0 0
SURF 10
  TYPE STANDARD
  FIMP 

  CURV 9.011769370797999279E-03 1 0 0 0 ""
  HIDE 0 0 0 0 0 0 0 0 0 0
  MIRR 2 0
  SLAB 1
  DISZ 10.319000000000001
  GLAS LAK16A 0 0 1.7409989882680905 52.676196092493768 -0.0095999999999999992 1 1 1 0 0 
  VDSZ 0 0
  DIAM 32.532851125182098 0 0 0 1 ""
  MEMA 32.874401808546963 0 0 0 1 ""
  POPS 0 0 0 0 0 0 0 0 1 1 1 1 0 0 0 0
SURF 11
  TYPE STANDARD
  FIMP 

  CURV -5.127390004666000124E-03 1 0 0 0 ""
  HIDE 0 0 0 0 0 0 0 0 0 0
  MIRR 2 0
  SLAB 1
  DISZ 70.597594148005754
  DIAM 32.874401808546963 0 0 0 1 ""
  MEMA 32.874401808546963 0 0 0 1 ""
  POPS 0 0 0 0 0 0 0 0 1 1 1 1 0 0 0 0
SURF 12
  TYPE STANDARD
  FIMP 

  CURV 0.0 0 0 0 0 ""
  HIDE 0 0 0 0 0 0 0 0 0 0
  MIRR 2 0
  SLAB 1
  DISZ 0
  DIAM 40.395133384162754 0 0 0 1 ""
  MEMA 40.395133384162754 0 0 0 1 ""
  POPS 0 0 0 0 0 0 0 0 1 1 1 1 0 0 0 0
INDX 1 2 0 0 0 0 0 0 0 0
INDX 3 2 0 0 0 0 0 0 0 0
INDX 4 2 0 0 0 0 0 0 0 0
INDX 7 2 0 0 0 0 0 0 0 0
INDX 8 2 0 0 0 0 0 0 0 0
INDX 10 2 0 0 0 0 0 0 0 0
BLNK 
BLNK 
BLNK 
BLNK Fixed-3A-SIMPLE
BLNK ANGLE FIELD
RANG 0 2 0 1 0 0 0 0 0 0
CONS 0 0 0 0 0 0 57.295000000000002 0 0 0
PROD 12 13 0 0 0 0 0 0 0 0
BLNK PMAG AND EFFL
PMAG 0 2 0 0 0 0 0 0 0 0
EFFL 0 2 0 0 0 0 100 0.10000000000000001 0 0
REAR 12 2 0 1 0 0 0 0 0 0
BLNK CONJUGATE
TTHI 0 11 0 0 0 0 0 0 0 0
BLNK VL
TTHI 2 11 0 0 0 0 0 0 0 0
OPLT 22 0 0 0 0 0 85 0.10000000000000001 0 0
BLNK IMAGE DISTANCE
CTGT 12 2 0 0 0 0 69 0.10000000000000001 0 0
BLNK OD
TTHI 0 0 0 0 0 0 0 0 0 0
BLNK DT
DIMX 0 2 0 0 0 0 3 0.10000000000000001 0 0
BLNK BOUDING FOR THE THICKNESS OF CENTERS AND EDGES
MNCT 2 11 0 0 0 0 0.10000000000000001 0.02 0 0
MNET 2 11 0 0 0 0 0.0001 0.02 0 0
MNCG 2 11 0 0 0 0 0.5 0.02 0 0
MNEG 2 11 0 0 0 0 0.5 0.02 0 0
BLNK 
MXCG 2 11 0 0 0 0 16 0.02 0 0
MXEG 2 11 0 0 0 0 15 0.02 0 0
BLNK 
DMFS 0 0 0 0 0 0 0 0 0 0
BLNK Default merit function: RMS spot radius chief GQ 3 rings 6 arms
BLNK No default air thickness boundary constraints.
BLNK No default glass thickness boundary constraints.
BLNK Operands for field 1.
TRAR 0 1 0 0 0.33571068700000001 0 0 0.096962736199999996 0 0
TRAR 0 1 0 0 0.70710678100000002 0 0 0.155140378 0 0
TRAR 0 1 0 0 0.94196514499999995 0 0 0.096962736199999996 0 0
TRAR 0 2 0 0 0.33571068700000001 0 0 0.096962736199999996 0 0
TRAR 0 2 0 0 0.70710678100000002 0 0 0.155140378 0 0
TRAR 0 2 0 0 0.94196514499999995 0 0 0.096962736199999996 0 0
TRAR 0 3 0 0 0.33571068700000001 0 0 0.096962736199999996 0 0
TRAR 0 3 0 0 0.70710678100000002 0 0 0.155140378 0 0
TRAR 0 3 0 0 0.94196514499999995 0 0 0.096962736199999996 0 0
BLNK Operands for field 2.
TRAR 0 1 0 0.70833333300000001 0.16785534399999999 0.29073398299999997 0 0.032320912100000002 0 0
TRAR 0 1 0 0.70833333300000001 0.35355339099999999 0.61237243600000002 0 0.0517134593 0 0
TRAR 0 1 0 0.70833333300000001 0.47098257300000002 0.81576574499999999 0 0.032320912100000002 0 0
TRAR 0 1 0 0.70833333300000001 0.33571068700000001 0 0 0.032320912100000002 0 0
TRAR 0 1 0 0.70833333300000001 0.70710678100000002 0 0 0.0517134593 0 0
TRAR 0 1 0 0.70833333300000001 0.94196514499999995 0 0 0.032320912100000002 0 0
TRAR 0 1 0 0.70833333300000001 0.16785534399999999 -0.29073398299999997 0 0.032320912100000002 0 0
TRAR 0 1 0 0.70833333300000001 0.35355339099999999 -0.61237243600000002 0 0.0517134593 0 0
TRAR 0 1 0 0.70833333300000001 0.47098257300000002 -0.81576574499999999 0 0.032320912100000002 0 0
TRAR 0 2 0 0.70833333300000001 0.16785534399999999 0.29073398299999997 0 0.032320912100000002 0 0
TRAR 0 2 0 0.70833333300000001 0.35355339099999999 0.61237243600000002 0 0.0517134593 0 0
TRAR 0 2 0 0.70833333300000001 0.47098257300000002 0.81576574499999999 0 0.032320912100000002 0 0
TRAR 0 2 0 0.70833333300000001 0.33571068700000001 0 0 0.032320912100000002 0 0
TRAR 0 2 0 0.70833333300000001 0.70710678100000002 0 0 0.0517134593 0 0
TRAR 0 2 0 0.70833333300000001 0.94196514499999995 0 0 0.032320912100000002 0 0
TRAR 0 2 0 0.70833333300000001 0.16785534399999999 -0.29073398299999997 0 0.032320912100000002 0 0
TRAR 0 2 0 0.70833333300000001 0.35355339099999999 -0.61237243600000002 0 0.0517134593 0 0
TRAR 0 2 0 0.70833333300000001 0.47098257300000002 -0.81576574499999999 0 0.032320912100000002 0 0
TRAR 0 3 0 0.70833333300000001 0.16785534399999999 0.29073398299999997 0 0.032320912100000002 0 0
TRAR 0 3 0 0.70833333300000001 0.35355339099999999 0.61237243600000002 0 0.0517134593 0 0
TRAR 0 3 0 0.70833333300000001 0.47098257300000002 0.81576574499999999 0 0.032320912100000002 0 0
TRAR 0 3 0 0.70833333300000001 0.33571068700000001 0 0 0.032320912100000002 0 0
TRAR 0 3 0 0.70833333300000001 0.70710678100000002 0 0 0.0517134593 0 0
TRAR 0 3 0 0.70833333300000001 0.94196514499999995 0 0 0.032320912100000002 0 0
TRAR 0 3 0 0.70833333300000001 0.16785534399999999 -0.29073398299999997 0 0.032320912100000002 0 0
TRAR 0 3 0 0.70833333300000001 0.35355339099999999 -0.61237243600000002 0 0.0517134593 0 0
TRAR 0 3 0 0.70833333300000001 0.47098257300000002 -0.81576574499999999 0 0.032320912100000002 0 0
BLNK Operands for field 3.
TRAR 0 1 0 1 0.16785534399999999 0.29073398299999997 0 0.032320912100000002 0 0
TRAR 0 1 0 1 0.35355339099999999 0.61237243600000002 0 0.0517134593 0 0
TRAR 0 1 0 1 0.47098257300000002 0.81576574499999999 0 0.032320912100000002 0 0
TRAR 0 1 0 1 0.33571068700000001 0 0 0.032320912100000002 0 0
TRAR 0 1 0 1 0.70710678100000002 0 0 0.0517134593 0 0
TRAR 0 1 0 1 0.94196514499999995 0 0 0.032320912100000002 0 0
TRAR 0 1 0 1 0.16785534399999999 -0.29073398299999997 0 0.032320912100000002 0 0
TRAR 0 1 0 1 0.35355339099999999 -0.61237243600000002 0 0.0517134593 0 0
TRAR 0 1 0 1 0.47098257300000002 -0.81576574499999999 0 0.032320912100000002 0 0
TRAR 0 2 0 1 0.16785534399999999 0.29073398299999997 0 0.032320912100000002 0 0
TRAR 0 2 0 1 0.35355339099999999 0.61237243600000002 0 0.0517134593 0 0
TRAR 0 2 0 1 0.47098257300000002 0.81576574499999999 0 0.032320912100000002 0 0
TRAR 0 2 0 1 0.33571068700000001 0 0 0.032320912100000002 0 0
TRAR 0 2 0 1 0.70710678100000002 0 0 0.0517134593 0 0
TRAR 0 2 0 1 0.94196514499999995 0 0 0.032320912100000002 0 0
TRAR 0 2 0 1 0.16785534399999999 -0.29073398299999997 0 0.032320912100000002 0 0
TRAR 0 2 0 1 0.35355339099999999 -0.61237243600000002 0 0.0517134593 0 0
TRAR 0 2 0 1 0.47098257300000002 -0.81576574499999999 0 0.032320912100000002 0 0
TRAR 0 3 0 1 0.16785534399999999 0.29073398299999997 0 0.032320912100000002 0 0
TRAR 0 3 0 1 0.35355339099999999 0.61237243600000002 0 0.0517134593 0 0
TRAR 0 3 0 1 0.47098257300000002 0.81576574499999999 0 0.032320912100000002 0 0
TRAR 0 3 0 1 0.33571068700000001 0 0 0.032320912100000002 0 0
TRAR 0 3 0 1 0.70710678100000002 0 0 0.0517134593 0 0
TRAR 0 3 0 1 0.94196514499999995 0 0 0.032320912100000002 0 0
TRAR 0 3 0 1 0.16785534399999999 -0.29073398299999997 0 0.032320912100000002 0 0
TRAR 0 3 0 1 0.35355339099999999 -0.61237243600000002 0 0.0517134593 0 0
TRAR 0 3 0 1 0.47098257300000002 -0.81576574499999999 0 0.032320912100000002 0 0
TOL TOFF   0   0 0.0000000000000000E+00 0.0000000000000000E+00   0 0 0 0 0
MNUM 1 1
MOFF   0   1 "" 0 0 0 1 1 0 0.0 "0" 0
